<?xml version="1.0" encoding="UTF-8"?>
<nodes>
    <!-- 2x2 grid nodes; all as traffic lights -->
    <node id="n1" x="0.0"   y="200.0" type="traffic_light"/>
    <node id="n2" x="200.0" y="200.0" type="traffic_light"/>
    <node id="n3" x="0.0"   y="0.0"   type="traffic_light"/>
    <node id="n4" x="200.0" y="0.0"   type="traffic_light"/>
</nodes>