<?xml version="1.0" encoding="UTF-8"?>

<!-- generated on 2026-02-25 11:20:18.028110 by Eclipse SUMO randomTrips.py v1.26.0
<configuration>
    <net-file value="my_env.net.xml"/>
    <route-file value="routes2.rou.xml"/>
    <seed value="2"/>
    <end value="1000.0"/>
    <period value="2.0"/>
    <poisson value="True"/>
    <random-depart value="True"/>
</configuration>
-->

<!-- generated on 2026-02-25T11:20:18.014991+01:00 by Eclipse SUMO duarouter 1.26.0
<duarouterConfiguration xmlns:xsi="http://www.w3.org/2001/XMLSchema-instance" xsi:noNamespaceSchemaLocation="http://sumo.dlr.de/xsd/duarouterConfiguration.xsd">

    <input>
        <net-file value="my_env.net.xml"/>
        <route-files value="trips.trips.xml"/>
    </input>

    <output>
        <output-file value="routes2.rou.xml"/>
        <alternatives-output value="NUL"/>
    </output>

    <time>
        <begin value="0"/>
        <end value="1000.0"/>
    </time>

    <report>
        <no-warnings value="true"/>
        <ignore-errors value="true"/>
        <no-step-log value="true"/>
    </report>

</duarouterConfiguration>
-->

<routes xmlns:xsi="http://www.w3.org/2001/XMLSchema-instance" xsi:noNamespaceSchemaLocation="http://sumo.dlr.de/xsd/routes_file.xsd">
    <vehicle id="0" depart="6.00">
        <route edges="-E21 -E12 -E11 -E10 -E9 E21"/>
    </vehicle>
    <vehicle id="1" depart="8.00">
        <route edges="-E20 -E9 -E12 -E11 -E10 E20"/>
    </vehicle>
    <vehicle id="2" depart="9.00">
        <route edges="-E17 -E10 -E9 -E12 -E11"/>
    </vehicle>
    <vehicle id="3" depart="11.00">
        <route edges="-E11 -E10 -E9 E21"/>
    </vehicle>
    <vehicle id="4" depart="12.00">
        <route edges="E9 E10 E17"/>
    </vehicle>
    <vehicle id="5" depart="12.00">
        <route edges="-E13 E9 E10 E17"/>
    </vehicle>
    <vehicle id="6" depart="13.00">
        <route edges="-E21 E13"/>
    </vehicle>
    <vehicle id="7" depart="14.00">
        <route edges="-E19 -E9 -E12 -E11"/>
    </vehicle>
    <vehicle id="8" depart="14.00">
        <route edges="-E19 E10 E11 E12 E9"/>
    </vehicle>
    <vehicle id="9" depart="17.00">
        <route edges="-E19 E10 E18"/>
    </vehicle>
    <vehicle id="10" depart="17.00">
        <route edges="-E15 E12 E21"/>
    </vehicle>
    <vehicle id="11" depart="17.00">
        <route edges="-E18 -E10 -E9 -E12 -E11 E18"/>
    </vehicle>
    <vehicle id="12" depart="17.00">
        <route edges="-E17 E11 E12 E9"/>
    </vehicle>
    <vehicle id="13" depart="22.00">
        <route edges="E10 E11 E16"/>
    </vehicle>
    <vehicle id="14" depart="22.00">
        <route edges="-E12 -E11 -E10 -E9 E13"/>
    </vehicle>
    <vehicle id="15" depart="23.00">
        <route edges="-E10 -E9 -E12 E16"/>
    </vehicle>
    <vehicle id="16" depart="24.00">
        <route edges="-E19 -E9 E13"/>
    </vehicle>
    <vehicle id="17" depart="26.00">
        <route edges="-E17 E18"/>
    </vehicle>
    <vehicle id="18" depart="26.00">
        <route edges="E12 E9 E10 E18"/>
    </vehicle>
    <vehicle id="19" depart="27.00">
        <route edges="-E18 E11 E12 E9"/>
    </vehicle>
    <vehicle id="20" depart="32.00">
        <route edges="-E16 -E11 E18"/>
    </vehicle>
    <vehicle id="21" depart="32.00">
        <route edges="-E21 E9 E19"/>
    </vehicle>
    <vehicle id="22" depart="37.00">
        <route edges="-E20 E10 E11 E12"/>
    </vehicle>
    <vehicle id="23" depart="37.00">
        <route edges="-E21 E9"/>
    </vehicle>
    <vehicle id="24" depart="46.00">
        <route edges="-E21 -E12 -E11 -E10"/>
    </vehicle>
    <vehicle id="25" depart="46.00">
        <route edges="-E18 -E10 -E9 -E12 -E11 E18"/>
    </vehicle>
    <vehicle id="26" depart="48.00">
        <route edges="E12 E9 E10 E17"/>
    </vehicle>
    <vehicle id="27" depart="50.00">
        <route edges="E9 E10 E18"/>
    </vehicle>
    <vehicle id="28" depart="52.00">
        <route edges="-E20 -E9 E21"/>
    </vehicle>
    <vehicle id="29" depart="52.00">
        <route edges="E11 E12 E9 E19"/>
    </vehicle>
    <vehicle id="30" depart="56.00">
        <route edges="-E13 -E12 -E11 E18"/>
    </vehicle>
    <vehicle id="31" depart="60.00">
        <route edges="-E20 -E9"/>
    </vehicle>
    <vehicle id="32" depart="60.00">
        <route edges="-E20 E10 E11 E12"/>
    </vehicle>
    <vehicle id="33" depart="63.00">
        <route edges="-E15 E16"/>
    </vehicle>
    <vehicle id="34" depart="64.00">
        <route edges="-E18 -E10 -E9"/>
    </vehicle>
    <vehicle id="35" depart="64.00">
        <route edges="-E10 -E9 E13"/>
    </vehicle>
    <vehicle id="36" depart="66.00">
        <route edges="E11 E12 E9 E10 E17"/>
    </vehicle>
    <vehicle id="37" depart="68.00">
        <route edges="E10 E11 E12 E13"/>
    </vehicle>
    <vehicle id="38" depart="70.00">
        <route edges="-E21 E9 E10 E11"/>
    </vehicle>
    <vehicle id="39" depart="72.00">
        <route edges="-E15 -E11 -E10 -E9 -E12 E15"/>
    </vehicle>
    <vehicle id="40" depart="74.00">
        <route edges="-E10 -E9 -E12 -E11"/>
    </vehicle>
    <vehicle id="41" depart="75.00">
        <route edges="E10 E11 E12 E9 E19"/>
    </vehicle>
    <vehicle id="42" depart="79.00">
        <route edges="-E17 -E10 -E9 -E12 -E11 E17"/>
    </vehicle>
    <vehicle id="43" depart="80.00">
        <route edges="E10 E11 E12 E9 E20"/>
    </vehicle>
    <vehicle id="44" depart="82.00">
        <route edges="-E12"/>
    </vehicle>
    <vehicle id="45" depart="88.00">
        <route edges="-E17 -E10 -E9 E13"/>
    </vehicle>
    <vehicle id="46" depart="94.00">
        <route edges="-E15 -E11 -E10"/>
    </vehicle>
    <vehicle id="47" depart="96.00">
        <route edges="-E19 E10 E11 E12 E9"/>
    </vehicle>
    <vehicle id="48" depart="106.00">
        <route edges="-E16 E15"/>
    </vehicle>
    <vehicle id="49" depart="107.00">
        <route edges="-E17 -E10 -E9 E13"/>
    </vehicle>
    <vehicle id="50" depart="108.00">
        <route edges="E11 E12 E9 E10"/>
    </vehicle>
    <vehicle id="51" depart="112.00">
        <route edges="-E21 E13"/>
    </vehicle>
    <vehicle id="52" depart="122.00">
        <route edges="-E19 -E9 E21"/>
    </vehicle>
    <vehicle id="53" depart="122.00">
        <route edges="-E11 -E10 E20"/>
    </vehicle>
    <vehicle id="54" depart="123.00">
        <route edges="-E15 -E11 E17"/>
    </vehicle>
    <vehicle id="55" depart="123.00">
        <route edges="E10 E17"/>
    </vehicle>
    <vehicle id="56" depart="125.00">
        <route edges="-E17 -E10 E20"/>
    </vehicle>
    <vehicle id="57" depart="125.00">
        <route edges="-E11 E17"/>
    </vehicle>
    <vehicle id="58" depart="129.00">
        <route edges="-E17 E11 E15"/>
    </vehicle>
    <vehicle id="59" depart="130.00">
        <route edges="E11 E12 E9 E19"/>
    </vehicle>
    <vehicle id="60" depart="132.00">
        <route edges="-E21 E9 E10"/>
    </vehicle>
    <vehicle id="61" depart="135.00">
        <route edges="-E13 -E12 -E11 -E10 -E9 E13"/>
    </vehicle>
    <vehicle id="62" depart="140.00">
        <route edges="-E13 E9 E10"/>
    </vehicle>
    <vehicle id="63" depart="140.00">
        <route edges="E11 E12"/>
    </vehicle>
    <vehicle id="64" depart="142.00">
        <route edges="-E16 E12 E9 E10 E11"/>
    </vehicle>
    <vehicle id="65" depart="144.00">
        <route edges="-E11 -E10 -E9 E13"/>
    </vehicle>
    <vehicle id="66" depart="148.00">
        <route edges="-E12 -E11 -E10 -E9 E13"/>
    </vehicle>
    <vehicle id="67" depart="150.00">
        <route edges="-E15 E12 E21"/>
    </vehicle>
    <vehicle id="68" depart="152.00">
        <route edges="E12 E13"/>
    </vehicle>
    <vehicle id="69" depart="152.00">
        <route edges="-E21 -E12 -E11 -E10 -E9 E21"/>
    </vehicle>
    <vehicle id="70" depart="152.00">
        <route edges="-E16 -E11"/>
    </vehicle>
    <vehicle id="71" depart="153.00">
        <route edges="-E13 -E12 -E11 -E10 -E9"/>
    </vehicle>
    <vehicle id="72" depart="154.00">
        <route edges="-E21 E9 E10 E11"/>
    </vehicle>
    <vehicle id="73" depart="155.00">
        <route edges="-E16 E12 E9 E19"/>
    </vehicle>
    <vehicle id="74" depart="157.00">
        <route edges="-E13 E9 E19"/>
    </vehicle>
    <vehicle id="75" depart="158.00">
        <route edges="-E21 E9 E10 E11 E12"/>
    </vehicle>
    <vehicle id="76" depart="161.00">
        <route edges="E11"/>
    </vehicle>
    <vehicle id="77" depart="162.00">
        <route edges="E12 E21"/>
    </vehicle>
    <vehicle id="78" depart="163.00">
        <route edges="-E19 E10 E18"/>
    </vehicle>
    <vehicle id="79" depart="164.00">
        <route edges="E9 E10 E18"/>
    </vehicle>
    <vehicle id="80" depart="171.00">
        <route edges="E10 E11 E12 E9 E20"/>
    </vehicle>
    <vehicle id="81" depart="173.00">
        <route edges="E12 E9 E19"/>
    </vehicle>
    <vehicle id="82" depart="182.00">
        <route edges="E9 E10"/>
    </vehicle>
    <vehicle id="83" depart="186.00">
        <route edges="-E20 E10 E17"/>
    </vehicle>
    <vehicle id="84" depart="190.00">
        <route edges="-E16 E12"/>
    </vehicle>
    <vehicle id="85" depart="197.00">
        <route edges="-E16 E12 E13"/>
    </vehicle>
    <vehicle id="86" depart="201.00">
        <route edges="-E16 E12 E21"/>
    </vehicle>
    <vehicle id="87" depart="204.00">
        <route edges="E12 E9 E19"/>
    </vehicle>
    <vehicle id="88" depart="206.00">
        <route edges="-E17 E11 E15"/>
    </vehicle>
    <vehicle id="89" depart="210.00">
        <route edges="-E13 E9 E20"/>
    </vehicle>
    <vehicle id="90" depart="211.00">
        <route edges="-E17 E11 E12 E9 E10"/>
    </vehicle>
    <vehicle id="91" depart="211.00">
        <route edges="-E21 -E12"/>
    </vehicle>
    <vehicle id="92" depart="211.00">
        <route edges="-E16 E12 E21"/>
    </vehicle>
    <vehicle id="93" depart="212.00">
        <route edges="-E11 -E10 -E9 -E12"/>
    </vehicle>
    <vehicle id="94" depart="223.00">
        <route edges="-E13 E9 E10"/>
    </vehicle>
    <vehicle id="95" depart="225.00">
        <route edges="-E17 E11 E12 E9 E10"/>
    </vehicle>
    <vehicle id="96" depart="226.00">
        <route edges="-E16 -E11 -E10 -E9"/>
    </vehicle>
    <vehicle id="97" depart="231.00">
        <route edges="-E13 -E12 E16"/>
    </vehicle>
    <vehicle id="98" depart="244.00">
        <route edges="-E16 E12 E9 E10 E11"/>
    </vehicle>
    <vehicle id="99" depart="246.00">
        <route edges="-E12 -E11 -E10 E20"/>
    </vehicle>
    <vehicle id="100" depart="247.00">
        <route edges="-E17 -E10 E19"/>
    </vehicle>
    <vehicle id="101" depart="249.00">
        <route edges="-E12 E15"/>
    </vehicle>
    <vehicle id="102" depart="249.00">
        <route edges="E11"/>
    </vehicle>
    <vehicle id="103" depart="249.00">
        <route edges="E10 E11 E16"/>
    </vehicle>
    <vehicle id="104" depart="250.00">
        <route edges="-E17 E11 E12 E9"/>
    </vehicle>
    <vehicle id="105" depart="255.00">
        <route edges="-E17 -E10 -E9 E13"/>
    </vehicle>
    <vehicle id="106" depart="257.00">
        <route edges="-E20 E10 E11"/>
    </vehicle>
    <vehicle id="107" depart="258.00">
        <route edges="E11 E16"/>
    </vehicle>
    <vehicle id="108" depart="258.00">
        <route edges="-E20 E10 E11 E15"/>
    </vehicle>
    <vehicle id="109" depart="259.00">
        <route edges="E9"/>
    </vehicle>
    <vehicle id="110" depart="260.00">
        <route edges="E11 E12 E13"/>
    </vehicle>
    <vehicle id="111" depart="267.00">
        <route edges="-E17 E11 E15"/>
    </vehicle>
    <vehicle id="112" depart="268.00">
        <route edges="-E10 -E9 -E12 -E11"/>
    </vehicle>
    <vehicle id="113" depart="269.00">
        <route edges="E12 E9 E10 E17"/>
    </vehicle>
    <vehicle id="114" depart="271.00">
        <route edges="-E15 E12 E9 E19"/>
    </vehicle>
    <vehicle id="115" depart="271.00">
        <route edges="-E10 -E9 -E12 -E11"/>
    </vehicle>
    <vehicle id="116" depart="273.00">
        <route edges="-E16 -E11 -E10 -E9 -E12"/>
    </vehicle>
    <vehicle id="117" depart="275.00">
        <route edges="-E12 -E11 E17"/>
    </vehicle>
    <vehicle id="118" depart="276.00">
        <route edges="-E21 -E12 -E11 -E10"/>
    </vehicle>
    <vehicle id="119" depart="277.00">
        <route edges="-E18 E11 E15"/>
    </vehicle>
    <vehicle id="120" depart="278.00">
        <route edges="-E12 E15"/>
    </vehicle>
    <vehicle id="121" depart="279.00">
        <route edges="-E10 -E9"/>
    </vehicle>
    <vehicle id="122" depart="288.00">
        <route edges="E12 E9 E20"/>
    </vehicle>
    <vehicle id="123" depart="292.00">
        <route edges="-E19 E10 E17"/>
    </vehicle>
    <vehicle id="124" depart="292.00">
        <route edges="-E18 -E10 -E9 -E12"/>
    </vehicle>
    <vehicle id="125" depart="292.00">
        <route edges="-E11"/>
    </vehicle>
    <vehicle id="126" depart="294.00">
        <route edges="-E13 -E12 -E11 -E10"/>
    </vehicle>
    <vehicle id="127" depart="294.00">
        <route edges="-E13 E9 E10 E11 E12"/>
    </vehicle>
    <vehicle id="128" depart="294.00">
        <route edges="-E20 -E9 -E12 -E11 -E10 E20"/>
    </vehicle>
    <vehicle id="129" depart="296.00">
        <route edges="E12 E9 E10 E18"/>
    </vehicle>
    <vehicle id="130" depart="301.00">
        <route edges="-E19 -E9 E21"/>
    </vehicle>
    <vehicle id="131" depart="301.00">
        <route edges="-E12 -E11"/>
    </vehicle>
    <vehicle id="132" depart="303.00">
        <route edges="E11 E12 E9 E10 E17"/>
    </vehicle>
    <vehicle id="133" depart="303.00">
        <route edges="-E13 E9 E10 E11 E12"/>
    </vehicle>
    <vehicle id="134" depart="305.00">
        <route edges="-E15 E12"/>
    </vehicle>
    <vehicle id="135" depart="306.00">
        <route edges="-E17 E11 E12"/>
    </vehicle>
    <vehicle id="136" depart="308.00">
        <route edges="E10 E11 E12 E9 E19"/>
    </vehicle>
    <vehicle id="137" depart="311.00">
        <route edges="-E19 -E9 E13"/>
    </vehicle>
    <vehicle id="138" depart="312.00">
        <route edges="-E15 E12 E9 E19"/>
    </vehicle>
    <vehicle id="139" depart="312.00">
        <route edges="-E9 -E12 -E11 E18"/>
    </vehicle>
    <vehicle id="140" depart="313.00">
        <route edges="-E21 -E12 -E11 -E10"/>
    </vehicle>
    <vehicle id="141" depart="313.00">
        <route edges="-E19 -E9"/>
    </vehicle>
    <vehicle id="142" depart="314.00">
        <route edges="-E13 -E12 E16"/>
    </vehicle>
    <vehicle id="143" depart="315.00">
        <route edges="-E21 E9 E10 E17"/>
    </vehicle>
    <vehicle id="144" depart="316.00">
        <route edges="-E9 -E12 -E11 E18"/>
    </vehicle>
    <vehicle id="145" depart="316.00">
        <route edges="-E18 -E10"/>
    </vehicle>
    <vehicle id="146" depart="323.00">
        <route edges="E10 E11 E12 E9 E20"/>
    </vehicle>
    <vehicle id="147" depart="324.00">
        <route edges="E11 E16"/>
    </vehicle>
    <vehicle id="148" depart="324.00">
        <route edges="-E10 -E9"/>
    </vehicle>
    <vehicle id="149" depart="324.00">
        <route edges="-E11 E17"/>
    </vehicle>
    <vehicle id="150" depart="325.00">
        <route edges="-E19 -E9 -E12"/>
    </vehicle>
    <vehicle id="151" depart="327.00">
        <route edges="E9"/>
    </vehicle>
    <vehicle id="152" depart="329.00">
        <route edges="E12 E13"/>
    </vehicle>
    <vehicle id="153" depart="331.00">
        <route edges="-E15 -E11 -E10 -E9"/>
    </vehicle>
    <vehicle id="154" depart="332.00">
        <route edges="E11 E12 E9 E10 E18"/>
    </vehicle>
    <vehicle id="155" depart="337.00">
        <route edges="-E15 E12 E21"/>
    </vehicle>
    <vehicle id="156" depart="337.00">
        <route edges="-E20 E10 E11 E12"/>
    </vehicle>
    <vehicle id="157" depart="340.00">
        <route edges="-E17 E18"/>
    </vehicle>
    <vehicle id="158" depart="340.00">
        <route edges="-E18 E17"/>
    </vehicle>
    <vehicle id="159" depart="346.00">
        <route edges="-E11 E18"/>
    </vehicle>
    <vehicle id="160" depart="351.00">
        <route edges="-E15 E12 E21"/>
    </vehicle>
    <vehicle id="161" depart="351.00">
        <route edges="-E13 E9 E10 E11"/>
    </vehicle>
    <vehicle id="162" depart="351.00">
        <route edges="-E19 E10 E11 E12"/>
    </vehicle>
    <vehicle id="163" depart="353.00">
        <route edges="-E19 -E9 E21"/>
    </vehicle>
    <vehicle id="164" depart="354.00">
        <route edges="-E13 E9 E19"/>
    </vehicle>
    <vehicle id="165" depart="355.00">
        <route edges="-E9 -E12 -E11 -E10 E19"/>
    </vehicle>
    <vehicle id="166" depart="355.00">
        <route edges="-E18 -E10 -E9 E13"/>
    </vehicle>
    <vehicle id="167" depart="358.00">
        <route edges="-E16 E12 E13"/>
    </vehicle>
    <vehicle id="168" depart="358.00">
        <route edges="-E15 -E11 -E10 -E9"/>
    </vehicle>
    <vehicle id="169" depart="360.00">
        <route edges="-E18 -E10 -E9"/>
    </vehicle>
    <vehicle id="170" depart="365.00">
        <route edges="-E18 E11 E16"/>
    </vehicle>
    <vehicle id="171" depart="370.00">
        <route edges="-E15 -E11 -E10 -E9 -E12"/>
    </vehicle>
    <vehicle id="172" depart="371.00">
        <route edges="-E20 -E9 -E12 -E11 -E10 E20"/>
    </vehicle>
    <vehicle id="173" depart="374.00">
        <route edges="-E13 -E12 E16"/>
    </vehicle>
    <vehicle id="174" depart="381.00">
        <route edges="-E21 -E12 -E11 -E10 -E9 E21"/>
    </vehicle>
    <vehicle id="175" depart="381.00">
        <route edges="-E21 E9 E10"/>
    </vehicle>
    <vehicle id="176" depart="385.00">
        <route edges="-E13 E9 E20"/>
    </vehicle>
    <vehicle id="177" depart="386.00">
        <route edges="-E15 -E11 -E10"/>
    </vehicle>
    <vehicle id="178" depart="388.00">
        <route edges="-E16 E12 E9 E10 E11"/>
    </vehicle>
    <vehicle id="179" depart="392.00">
        <route edges="-E15 -E11 E18"/>
    </vehicle>
    <vehicle id="180" depart="394.00">
        <route edges="-E16 E12 E13"/>
    </vehicle>
    <vehicle id="181" depart="396.00">
        <route edges="-E17 -E10 E20"/>
    </vehicle>
    <vehicle id="182" depart="398.00">
        <route edges="-E10 -E9 -E12 E16"/>
    </vehicle>
    <vehicle id="183" depart="401.00">
        <route edges="-E12"/>
    </vehicle>
    <vehicle id="184" depart="403.00">
        <route edges="-E20 E10 E11 E12"/>
    </vehicle>
    <vehicle id="185" depart="404.00">
        <route edges="-E11 -E10 -E9 -E12 E16"/>
    </vehicle>
    <vehicle id="186" depart="406.00">
        <route edges="E12 E9 E10 E17"/>
    </vehicle>
    <vehicle id="187" depart="410.00">
        <route edges="-E18 -E10 E19"/>
    </vehicle>
    <vehicle id="188" depart="411.00">
        <route edges="-E15 E12 E9"/>
    </vehicle>
    <vehicle id="189" depart="412.00">
        <route edges="-E9 -E12 -E11 -E10 E20"/>
    </vehicle>
    <vehicle id="190" depart="414.00">
        <route edges="-E20 E10 E18"/>
    </vehicle>
    <vehicle id="191" depart="415.00">
        <route edges="-E19 -E9"/>
    </vehicle>
    <vehicle id="192" depart="415.00">
        <route edges="-E13 -E12 -E11 -E10"/>
    </vehicle>
    <vehicle id="193" depart="417.00">
        <route edges="-E21 -E12"/>
    </vehicle>
    <vehicle id="194" depart="419.00">
        <route edges="-E20 E10 E11 E12"/>
    </vehicle>
    <vehicle id="195" depart="420.00">
        <route edges="-E17 E11 E12 E9"/>
    </vehicle>
    <vehicle id="196" depart="425.00">
        <route edges="-E17 -E10 -E9 E13"/>
    </vehicle>
    <vehicle id="197" depart="426.00">
        <route edges="-E17 -E10 -E9"/>
    </vehicle>
    <vehicle id="198" depart="426.00">
        <route edges="-E13 -E12 E15"/>
    </vehicle>
    <vehicle id="199" depart="429.00">
        <route edges="E9 E10 E17"/>
    </vehicle>
    <vehicle id="200" depart="433.00">
        <route edges="-E10 -E9 -E12 -E11 E18"/>
    </vehicle>
    <vehicle id="201" depart="437.00">
        <route edges="-E17 E11 E15"/>
    </vehicle>
    <vehicle id="202" depart="443.00">
        <route edges="-E11 -E10 -E9 -E12 E15"/>
    </vehicle>
    <vehicle id="203" depart="448.00">
        <route edges="-E19 -E9 -E12 -E11 -E10 E19"/>
    </vehicle>
    <vehicle id="204" depart="449.00">
        <route edges="-E20 E10 E18"/>
    </vehicle>
    <vehicle id="205" depart="450.00">
        <route edges="-E9"/>
    </vehicle>
    <vehicle id="206" depart="451.00">
        <route edges="-E10 -E9 E13"/>
    </vehicle>
    <vehicle id="207" depart="452.00">
        <route edges="-E12"/>
    </vehicle>
    <vehicle id="208" depart="456.00">
        <route edges="-E16 E15"/>
    </vehicle>
    <vehicle id="209" depart="458.00">
        <route edges="-E20 E10 E17"/>
    </vehicle>
    <vehicle id="210" depart="458.00">
        <route edges="-E19 -E9 -E12 -E11"/>
    </vehicle>
    <vehicle id="211" depart="458.00">
        <route edges="-E21 E9 E10 E11 E12"/>
    </vehicle>
    <vehicle id="212" depart="461.00">
        <route edges="-E21 E13"/>
    </vehicle>
    <vehicle id="213" depart="462.00">
        <route edges="E9 E10 E11"/>
    </vehicle>
    <vehicle id="214" depart="464.00">
        <route edges="-E16 E12 E21"/>
    </vehicle>
    <vehicle id="215" depart="467.00">
        <route edges="-E20 -E9 -E12 -E11"/>
    </vehicle>
    <vehicle id="216" depart="467.00">
        <route edges="E10 E11"/>
    </vehicle>
    <vehicle id="217" depart="469.00">
        <route edges="E9 E10 E17"/>
    </vehicle>
    <vehicle id="218" depart="476.00">
        <route edges="E10 E11 E12 E21"/>
    </vehicle>
    <vehicle id="219" depart="476.00">
        <route edges="-E19 E10 E11 E12 E9"/>
    </vehicle>
    <vehicle id="220" depart="477.00">
        <route edges="-E21 E9"/>
    </vehicle>
    <vehicle id="221" depart="481.00">
        <route edges="-E9 -E12 -E11 -E10 E20"/>
    </vehicle>
    <vehicle id="222" depart="484.00">
        <route edges="-E11 -E10 -E9 -E12 E15"/>
    </vehicle>
    <vehicle id="223" depart="486.00">
        <route edges="-E20 E10 E11 E12"/>
    </vehicle>
    <vehicle id="224" depart="488.00">
        <route edges="-E17 -E10 E19"/>
    </vehicle>
    <vehicle id="225" depart="488.00">
        <route edges="-E12 -E11 -E10"/>
    </vehicle>
    <vehicle id="226" depart="489.00">
        <route edges="-E20 E10 E11 E12 E9"/>
    </vehicle>
    <vehicle id="227" depart="490.00">
        <route edges="E11 E12 E9 E10 E17"/>
    </vehicle>
    <vehicle id="228" depart="491.00">
        <route edges="-E15 E12 E21"/>
    </vehicle>
    <vehicle id="229" depart="495.00">
        <route edges="-E10 -E9"/>
    </vehicle>
    <vehicle id="230" depart="501.00">
        <route edges="E10 E11 E12 E21"/>
    </vehicle>
    <vehicle id="231" depart="501.00">
        <route edges="-E17 E11 E12 E21"/>
    </vehicle>
    <vehicle id="232" depart="502.00">
        <route edges="-E11 -E10 -E9 -E12 E16"/>
    </vehicle>
    <vehicle id="233" depart="506.00">
        <route edges="-E11 -E10 -E9"/>
    </vehicle>
    <vehicle id="234" depart="506.00">
        <route edges="-E13 -E12 -E11 -E10"/>
    </vehicle>
    <vehicle id="235" depart="507.00">
        <route edges="-E17 E11 E15"/>
    </vehicle>
    <vehicle id="236" depart="507.00">
        <route edges="-E15 -E11 E17"/>
    </vehicle>
    <vehicle id="237" depart="512.00">
        <route edges="-E10 -E9 -E12 E15"/>
    </vehicle>
    <vehicle id="238" depart="516.00">
        <route edges="-E19 E10 E11 E12"/>
    </vehicle>
    <vehicle id="239" depart="521.00">
        <route edges="-E17 -E10 -E9 E13"/>
    </vehicle>
    <vehicle id="240" depart="525.00">
        <route edges="-E16 E12 E9"/>
    </vehicle>
    <vehicle id="241" depart="526.00">
        <route edges="-E20 E10 E11 E15"/>
    </vehicle>
    <vehicle id="242" depart="527.00">
        <route edges="-E18 E11 E12"/>
    </vehicle>
    <vehicle id="243" depart="534.00">
        <route edges="E9 E19"/>
    </vehicle>
    <vehicle id="244" depart="535.00">
        <route edges="-E21 -E12"/>
    </vehicle>
    <vehicle id="245" depart="537.00">
        <route edges="-E20 -E9 -E12"/>
    </vehicle>
    <vehicle id="246" depart="540.00">
        <route edges="-E16 -E11 -E10"/>
    </vehicle>
    <vehicle id="247" depart="540.00">
        <route edges="-E21 -E12 E16"/>
    </vehicle>
    <vehicle id="248" depart="545.00">
        <route edges="-E15 E12 E13"/>
    </vehicle>
    <vehicle id="249" depart="546.00">
        <route edges="-E18 E11 E12"/>
    </vehicle>
    <vehicle id="250" depart="547.00">
        <route edges="-E15 -E11 -E10 -E9"/>
    </vehicle>
    <vehicle id="251" depart="551.00">
        <route edges="E10 E11 E12 E9"/>
    </vehicle>
    <vehicle id="252" depart="552.00">
        <route edges="E11 E16"/>
    </vehicle>
    <vehicle id="253" depart="558.00">
        <route edges="E11 E12 E9"/>
    </vehicle>
    <vehicle id="254" depart="559.00">
        <route edges="-E19 -E9 -E12 E16"/>
    </vehicle>
    <vehicle id="255" depart="560.00">
        <route edges="-E21 -E12 -E11 -E10 -E9"/>
    </vehicle>
    <vehicle id="256" depart="561.00">
        <route edges="E11 E12 E13"/>
    </vehicle>
    <vehicle id="257" depart="563.00">
        <route edges="-E21 -E12 E15"/>
    </vehicle>
    <vehicle id="258" depart="565.00">
        <route edges="-E19 -E9 E13"/>
    </vehicle>
    <vehicle id="259" depart="568.00">
        <route edges="E9 E19"/>
    </vehicle>
    <vehicle id="260" depart="569.00">
        <route edges="-E17 E11 E15"/>
    </vehicle>
    <vehicle id="261" depart="569.00">
        <route edges="E12 E9 E10 E18"/>
    </vehicle>
    <vehicle id="262" depart="570.00">
        <route edges="-E21 E9"/>
    </vehicle>
    <vehicle id="263" depart="570.00">
        <route edges="-E11 -E10 -E9 -E12 E16"/>
    </vehicle>
    <vehicle id="264" depart="573.00">
        <route edges="-E20 -E9 E13"/>
    </vehicle>
    <vehicle id="265" depart="574.00">
        <route edges="E9"/>
    </vehicle>
    <vehicle id="266" depart="575.00">
        <route edges="-E17 E11 E16"/>
    </vehicle>
    <vehicle id="267" depart="575.00">
        <route edges="E10 E18"/>
    </vehicle>
    <vehicle id="268" depart="576.00">
        <route edges="-E16 E12 E9 E19"/>
    </vehicle>
    <vehicle id="269" depart="577.00">
        <route edges="-E16 -E11 -E10 -E9 -E12"/>
    </vehicle>
    <vehicle id="270" depart="578.00">
        <route edges="-E21 E9 E10 E17"/>
    </vehicle>
    <vehicle id="271" depart="578.00">
        <route edges="-E17 -E10 -E9 E13"/>
    </vehicle>
    <vehicle id="272" depart="579.00">
        <route edges="E9 E19"/>
    </vehicle>
    <vehicle id="273" depart="583.00">
        <route edges="-E17 E11 E12 E21"/>
    </vehicle>
    <vehicle id="274" depart="590.00">
        <route edges="-E20 E10 E11 E12"/>
    </vehicle>
    <vehicle id="275" depart="593.00">
        <route edges="-E21 E9 E19"/>
    </vehicle>
    <vehicle id="276" depart="594.00">
        <route edges="E12 E9 E10 E17"/>
    </vehicle>
    <vehicle id="277" depart="595.00">
        <route edges="-E21 E9 E10 E11 E12"/>
    </vehicle>
    <vehicle id="278" depart="596.00">
        <route edges="-E10 -E9 E13"/>
    </vehicle>
    <vehicle id="279" depart="597.00">
        <route edges="-E16 -E11 -E10 -E9 -E12 E16"/>
    </vehicle>
    <vehicle id="280" depart="598.00">
        <route edges="-E9 -E12"/>
    </vehicle>
    <vehicle id="281" depart="601.00">
        <route edges="E11"/>
    </vehicle>
    <vehicle id="282" depart="604.00">
        <route edges="-E11 -E10 -E9 -E12 E16"/>
    </vehicle>
    <vehicle id="283" depart="605.00">
        <route edges="-E17 E11 E12 E21"/>
    </vehicle>
    <vehicle id="284" depart="605.00">
        <route edges="-E18 -E10 -E9 -E12 -E11"/>
    </vehicle>
    <vehicle id="285" depart="606.00">
        <route edges="-E10"/>
    </vehicle>
    <vehicle id="286" depart="609.00">
        <route edges="-E18 -E10 -E9 -E12 -E11 E18"/>
    </vehicle>
    <vehicle id="287" depart="609.00">
        <route edges="-E18 E11 E12 E21"/>
    </vehicle>
    <vehicle id="288" depart="616.00">
        <route edges="E9 E10 E11 E12 E21"/>
    </vehicle>
    <vehicle id="289" depart="618.00">
        <route edges="-E21 -E12 E16"/>
    </vehicle>
    <vehicle id="290" depart="620.00">
        <route edges="-E13 -E12 E16"/>
    </vehicle>
    <vehicle id="291" depart="621.00">
        <route edges="E11 E16"/>
    </vehicle>
    <vehicle id="292" depart="623.00">
        <route edges="-E9 E13"/>
    </vehicle>
    <vehicle id="293" depart="624.00">
        <route edges="-E15 -E11 -E10 -E9 -E12 E15"/>
    </vehicle>
    <vehicle id="294" depart="628.00">
        <route edges="-E20 -E9"/>
    </vehicle>
    <vehicle id="295" depart="628.00">
        <route edges="E11 E12 E9"/>
    </vehicle>
    <vehicle id="296" depart="629.00">
        <route edges="-E12 -E11 -E10 -E9"/>
    </vehicle>
    <vehicle id="297" depart="629.00">
        <route edges="E10 E18"/>
    </vehicle>
    <vehicle id="298" depart="629.00">
        <route edges="-E13 -E12 E16"/>
    </vehicle>
    <vehicle id="299" depart="630.00">
        <route edges="-E13 E9 E20"/>
    </vehicle>
    <vehicle id="300" depart="631.00">
        <route edges="-E20 E10 E11 E15"/>
    </vehicle>
    <vehicle id="301" depart="638.00">
        <route edges="-E18 E11"/>
    </vehicle>
    <vehicle id="302" depart="640.00">
        <route edges="-E12 -E11 -E10 -E9"/>
    </vehicle>
    <vehicle id="303" depart="641.00">
        <route edges="-E9 E21"/>
    </vehicle>
    <vehicle id="304" depart="642.00">
        <route edges="E11 E16"/>
    </vehicle>
    <vehicle id="305" depart="642.00">
        <route edges="-E13 -E12 -E11 E18"/>
    </vehicle>
    <vehicle id="306" depart="642.00">
        <route edges="-E10 -E9 -E12 -E11"/>
    </vehicle>
    <vehicle id="307" depart="643.00">
        <route edges="E12 E9 E10"/>